Version 4
SHEET 1 10276 2748
WIRE -160 -288 -256 -288
WIRE 336 -288 -160 -288
WIRE 560 -288 336 -288
WIRE 1472 -288 560 -288
WIRE 336 -224 336 -288
WIRE 560 -224 560 -288
WIRE 1472 -192 1472 -288
WIRE 1408 -144 1312 -144
WIRE 1248 -96 1024 -96
WIRE -160 -80 -160 -288
WIRE 1472 -48 1472 -96
WIRE 1472 -48 1312 -48
WIRE 336 -16 336 -144
WIRE 560 -16 560 -144
WIRE 1472 0 1472 -48
WIRE 1472 0 1392 0
WIRE 2336 0 1472 0
WIRE 2368 0 2336 0
WIRE 2480 0 2448 0
WIRE 2720 0 2480 0
WIRE 448 32 400 32
WIRE 496 32 448 32
WIRE 1392 48 1392 0
WIRE 1472 48 1472 0
WIRE 2720 64 2720 0
WIRE 2880 64 2880 0
WIRE 336 112 336 80
WIRE 448 112 448 32
WIRE 448 112 336 112
WIRE 560 160 560 80
WIRE 624 160 560 160
WIRE 1024 160 1024 -96
WIRE 1024 160 624 160
WIRE 1104 160 1024 160
WIRE 1472 160 1472 128
WIRE 336 224 336 112
WIRE 560 224 560 160
WIRE 624 224 624 160
WIRE 720 224 704 224
WIRE 2720 224 2720 144
WIRE 2880 224 2880 128
WIRE 2336 256 2336 0
WIRE 2480 256 2480 0
WIRE 272 272 160 272
WIRE 784 272 784 224
WIRE 784 272 624 272
WIRE 1024 272 784 272
WIRE 1392 272 1392 112
WIRE 1392 272 1024 272
WIRE 1472 272 1472 240
WIRE 1472 272 1392 272
WIRE -2000 336 -2048 336
WIRE -1888 336 -1936 336
WIRE -1504 336 -1552 336
WIRE -1376 336 -1440 336
WIRE 1024 336 1024 272
WIRE 336 352 336 320
WIRE 448 352 336 352
WIRE 560 352 560 320
WIRE 560 352 448 352
WIRE -1888 400 -1888 336
WIRE -1376 416 -1376 336
WIRE -1152 416 -1152 352
WIRE 1472 416 1472 272
WIRE -160 448 -160 0
WIRE -16 448 -160 448
WIRE 2336 448 2336 336
WIRE 2336 448 2192 448
WIRE 2400 448 2336 448
WIRE 2480 480 2480 336
WIRE 2480 480 2432 480
WIRE 2624 480 2480 480
WIRE -160 496 -160 448
WIRE 448 496 448 352
WIRE 2192 512 2192 448
WIRE 2400 528 2400 448
WIRE 2432 528 2432 480
WIRE 2624 528 2624 480
WIRE -16 544 -16 448
WIRE -16 544 -96 544
WIRE 384 544 -16 544
WIRE 1472 544 1472 496
WIRE 1744 544 1472 544
WIRE 2384 560 2368 560
WIRE 2496 560 2448 560
WIRE -2048 576 -2048 336
WIRE -1888 576 -1888 480
WIRE -1552 576 -1552 336
WIRE -1376 576 -1376 496
WIRE -1152 576 -1152 496
WIRE 1184 576 1136 576
WIRE 1472 592 1472 544
WIRE 1136 608 1136 576
WIRE 1744 640 1744 544
WIRE -160 672 -160 592
WIRE 448 672 448 592
WIRE 448 672 -160 672
WIRE 2192 672 2192 592
WIRE 2416 672 2416 592
WIRE 2416 672 2192 672
WIRE 2624 672 2624 608
WIRE 1136 704 1136 672
WIRE 1472 704 1472 672
WIRE 448 720 448 672
WIRE 1888 720 1792 720
WIRE 2416 720 2416 672
WIRE 1136 816 1136 784
WIRE 1472 832 1472 784
WIRE 1744 832 1744 736
WIRE -1744 880 -1792 880
WIRE -1616 880 -1680 880
WIRE -1312 880 -1360 880
WIRE -1200 880 -1248 880
WIRE -928 880 -976 880
WIRE -816 880 -864 880
WIRE 2416 928 2416 800
WIRE -1616 960 -1616 880
WIRE -1200 960 -1200 880
WIRE -816 960 -816 880
WIRE 160 1072 160 1040
WIRE -256 1088 -304 1088
WIRE -128 1088 -176 1088
WIRE 0 1088 -48 1088
WIRE 128 1088 0 1088
WIRE 256 1104 192 1104
WIRE 336 1104 256 1104
WIRE 512 1104 416 1104
WIRE 576 1104 512 1104
WIRE -1792 1120 -1792 880
WIRE -1616 1120 -1616 1040
WIRE -1360 1120 -1360 880
WIRE -1200 1120 -1200 1040
WIRE -976 1120 -976 880
WIRE -816 1120 -816 1040
WIRE 128 1120 96 1120
WIRE 160 1152 160 1136
WIRE 0 1168 0 1088
WIRE 1376 1216 1376 1104
WIRE 2320 1232 2320 1200
WIRE 2448 1248 2352 1248
WIRE 96 1264 96 1120
WIRE 256 1264 256 1104
WIRE 256 1264 96 1264
WIRE 1488 1264 1440 1264
WIRE 2160 1264 1568 1264
WIRE 2288 1264 2160 1264
WIRE 2400 1280 2352 1280
WIRE 2448 1296 2448 1248
WIRE 0 1312 0 1248
WIRE 2320 1328 2320 1296
WIRE 1376 1360 1376 1312
WIRE 1744 1408 1664 1408
WIRE 160 1424 160 1392
WIRE -256 1440 -304 1440
WIRE -128 1440 -176 1440
WIRE 0 1440 -48 1440
WIRE 128 1440 0 1440
WIRE 1664 1440 1664 1408
WIRE 2160 1440 2160 1264
WIRE 2224 1440 2160 1440
WIRE 2400 1440 2400 1280
WIRE 2400 1440 2304 1440
WIRE 256 1456 192 1456
WIRE 336 1456 256 1456
WIRE 512 1456 512 1104
WIRE 512 1456 416 1456
WIRE 128 1472 96 1472
WIRE 0 1488 0 1440
WIRE 1376 1488 1376 1440
WIRE 1664 1552 1664 1504
WIRE 96 1600 96 1472
WIRE 256 1600 256 1456
WIRE 256 1600 96 1600
WIRE 0 1616 0 1568
WIRE 1664 1680 1664 1632
WIRE 0 1728 0 1696
FLAG 1024 336 Vf
FLAG 1376 1488 0
FLAG -1376 576 0
FLAG 0 1312 0
FLAG 0 1728 0
FLAG 2720 224 0
FLAG 2880 224 0
FLAG 160 1152 +VPOSA
FLAG 2368 560 +VPOSA
FLAG 2320 1328 +VPOSA
FLAG 160 1488 +VPOSA
FLAG -1888 576 0
FLAG 1744 832 0
FLAG 1472 832 0
FLAG -1616 1120 0
FLAG 448 720 0
FLAG 2720 0 Vo
FLAG -1200 1120 0
FLAG -1200 880 +VPOSA
FLAG 160 272 Vref
FLAG -304 1440 Vf
FLAG -304 1088 Vref
FLAG 2400 1440 Sum
FLAG 1376 1104 Vlc
FLAG 1104 160 Vlc
FLAG 576 1104 Sum
FLAG -256 -288 Vreg
FLAG -1888 336 Vreg
FLAG 1888 720 SELA
FLAG -1616 880 SELA
FLAG 2880 0 Vo
FLAG 2416 928 Sum
FLAG -816 1120 0
FLAG -816 880 -VPOSA
FLAG 2624 672 0
FLAG 2496 560 -VPOSA
FLAG 160 1040 -VPOSA
FLAG 160 1392 -VPOSA
FLAG 2320 1200 -VPOSA
FLAG 2448 1296 0
FLAG 1664 1680 0
FLAG -1376 336 Vref
FLAG -1152 576 0
FLAG 1136 816 0
FLAG 1264 576 0
FLAG -1360 1120 0
FLAG -976 1120 0
FLAG -2048 576 0
FLAG -1552 576 0
FLAG -1792 1120 0
FLAG 1824 1408 0
FLAG -1152 352 0
SYMBOL pnp 400 80 R180
SYMATTR InstName Q1
SYMATTR Value BC557B
SYMBOL pnp 496 80 M180
SYMATTR InstName Q2
SYMATTR Value BC557B
SYMBOL npn 272 224 R0
WINDOW 3 52 65 Left 2
SYMATTR Value BC547B
SYMATTR InstName Q3
SYMBOL npn 624 224 M0
WINDOW 3 42 64 Left 2
SYMATTR Value BC547B
SYMATTR InstName Q4
SYMBOL pnp 1408 -96 M180
SYMATTR InstName Q9
SYMATTR Value TIP42C
SYMBOL npn 1248 -144 R0
SYMATTR InstName Q8
SYMATTR Value BC547B
SYMBOL res 1456 144 R0
SYMATTR InstName R2
SYMATTR Value 390
SYMBOL res 1456 400 R0
SYMATTR InstName R3
SYMATTR Value 1K
SYMBOL res 2704 48 R0
WINDOW 3 -4585 111 Left 2
SYMATTR Value {RL}
SYMATTR InstName RL
SYMBOL voltage -1376 400 R0
WINDOW 123 24 124 Left 2
WINDOW 39 0 0 Left 0
SYMATTR Value2 AC {VREFAC}
SYMATTR InstName V1
SYMATTR Value {VREFDC}
SYMBOL voltage -1888 384 R0
WINDOW 123 24 124 Left 2
WINDOW 39 0 0 Left 0
SYMATTR Value2 AC {VINAC}
SYMATTR InstName Vreg1
SYMATTR Value {VINDC}
SYMBOL res 320 -240 R0
SYMATTR InstName RE1
SYMATTR Value 470
SYMBOL res 544 -240 R0
SYMATTR InstName RE2
SYMATTR Value 470
SYMBOL cap 2864 64 R0
SYMATTR InstName C3
SYMATTR Value {CL}
SYMBOL res 2464 -16 R90
WINDOW 0 0 56 VBottom 2
WINDOW 3 32 56 VTop 2
SYMATTR InstName Rs
SYMATTR Value 0.1
SYMBOL res 2320 1424 R90
WINDOW 0 0 56 VBottom 2
WINDOW 3 32 56 VTop 2
SYMATTR InstName R14
SYMATTR Value 100k
SYMBOL res 1584 1248 R90
WINDOW 0 0 56 VBottom 2
WINDOW 3 32 56 VTop 2
SYMATTR InstName R15
SYMATTR Value 1k
SYMBOL res 1360 1344 R0
SYMATTR InstName R25
SYMATTR Value 100
SYMBOL npn 1440 1216 M0
SYMATTR InstName Q7
SYMATTR Value BC547B
SYMBOL res -16 1152 R0
SYMATTR InstName R22
SYMATTR Value 1.5k
SYMBOL res 432 1088 R90
WINDOW 0 0 56 VBottom 2
WINDOW 3 32 56 VTop 2
SYMATTR InstName R18
SYMATTR Value 1.5k
SYMBOL res -160 1424 R90
WINDOW 0 0 56 VBottom 2
WINDOW 3 32 56 VTop 2
SYMATTR InstName R21
SYMATTR Value 6.8k
SYMBOL res -16 1472 R0
SYMATTR InstName R20
SYMATTR Value 6.8k
SYMBOL res 432 1440 R90
WINDOW 0 0 56 VBottom 2
WINDOW 3 32 56 VTop 2
SYMATTR InstName R19
SYMATTR Value 1.5k
SYMBOL res 1456 576 R0
SYMATTR InstName R4
SYMATTR Value 680
SYMBOL nmos 1792 640 M0
SYMATTR InstName M1
SYMATTR Value 2N7002
SYMBOL voltage -1616 944 R0
WINDOW 3 32 89 Left 2
WINDOW 123 0 0 Left 0
WINDOW 39 0 0 Left 0
SYMATTR Value {SELA}
SYMATTR InstName SELA1
SYMBOL npn 384 496 R0
SYMATTR InstName Q6
SYMATTR Value BC547B
SYMBOL npn -96 496 M0
SYMATTR InstName Q5
SYMATTR Value BC547B
SYMBOL res -176 -96 R0
SYMATTR InstName R6
SYMATTR Value 3.3k
SYMBOL res 1456 32 R0
SYMATTR InstName R1
SYMATTR Value 2.7k
SYMBOL OpAmps\\opamp2 2352 560 M90
SYMATTR InstName U2A
SYMATTR Value LM324
SYMBOL OpAmps\\opamp2 2320 1328 R180
WINDOW 3 36 85 Left 2
SYMATTR Value LM324
SYMATTR InstName U2B
SYMBOL OpAmps\\opamp2 160 1168 M180
SYMATTR InstName U1A
SYMATTR Value LM324
SYMBOL voltage -1200 944 R0
SYMATTR InstName VPOSA1
SYMATTR Value 5
SYMBOL res -160 1072 R90
WINDOW 0 0 56 VBottom 2
WINDOW 3 32 56 VTop 2
SYMATTR InstName R23
SYMATTR Value 5.6k
SYMBOL res 2608 512 R0
SYMATTR InstName R10
SYMATTR Value 10k
SYMBOL res 2320 240 R0
SYMATTR InstName R26
SYMATTR Value 1k
SYMBOL res 2464 240 R0
SYMATTR InstName R27
SYMATTR Value 1k
SYMBOL res 1456 688 R0
SYMATTR InstName R5
SYMATTR Value 270
SYMBOL OpAmps\\opamp2 160 1520 M180
SYMATTR InstName U1B
SYMATTR Value LM324
SYMBOL res -32 1072 R90
WINDOW 0 0 56 VBottom 2
WINDOW 3 32 56 VTop 2
SYMATTR InstName R7
SYMATTR Value 2.7k
SYMBOL voltage -1152 400 R0
WINDOW 123 0 0 Left 0
WINDOW 39 0 0 Left 0
SYMATTR InstName Pulso
SYMATTR Value PULSE(0 10m 0 1f 1f 1m 2m)
SYMBOL res 2400 704 R0
SYMATTR InstName R16
SYMATTR Value 1.5k
SYMBOL voltage -816 944 R0
SYMATTR InstName VPOSA2
SYMATTR Value -5
SYMBOL res 2176 496 R0
SYMATTR InstName R9
SYMATTR Value 10k
SYMBOL res -16 1600 R0
SYMATTR InstName R8
SYMATTR Value 680
SYMBOL res -32 1424 R90
WINDOW 0 0 56 VBottom 2
WINDOW 3 32 56 VTop 2
SYMATTR InstName R11
SYMATTR Value 1.2k
SYMBOL cap 1680 1440 M0
SYMATTR InstName Cp
SYMATTR Value 1Meg
SYMBOL voltage 1664 1536 M0
WINDOW 123 24 124 Left 2
WINDOW 39 0 0 Left 0
WINDOW 3 24 44 Left 2
SYMATTR Value2 AC 1
SYMATTR Value ""
SYMATTR InstName Vp
SYMBOL ind 1728 1392 M90
WINDOW 0 5 56 VBottom 2
WINDOW 3 32 56 VTop 2
SYMATTR InstName Lp
SYMATTR Value 1Meg
SYMBOL cap 1376 48 R0
SYMATTR InstName C4
SYMATTR Value 90p
SYMBOL cap 784 208 R90
WINDOW 0 0 32 VBottom 2
WINDOW 3 32 32 VTop 2
SYMATTR InstName C1
SYMATTR Value 2.5n
SYMBOL res 720 208 R90
WINDOW 0 0 56 VBottom 2
WINDOW 3 32 56 VTop 2
SYMATTR InstName R12
SYMATTR Value 200
SYMBOL ind 1280 560 R90
WINDOW 0 5 56 VBottom 2
WINDOW 3 32 56 VTop 2
SYMATTR InstName L1
SYMATTR Value 1Meg
SYMBOL cap 1120 608 R0
SYMATTR InstName C2
SYMATTR Value 1Meg
SYMBOL voltage 1136 688 R0
WINDOW 3 24 152 Left 2
WINDOW 123 24 180 Left 2
WINDOW 39 0 0 Left 0
SYMATTR Value ""
SYMATTR Value2 AC 1
SYMATTR InstName V2
SYMBOL cap -1312 896 R270
WINDOW 0 32 32 VTop 2
WINDOW 3 0 32 VBottom 2
SYMATTR InstName C5
SYMATTR Value {Cdes}
SYMBOL cap -928 896 R270
WINDOW 0 32 32 VTop 2
WINDOW 3 0 32 VBottom 2
SYMATTR InstName C6
SYMATTR Value {Cdes}
SYMBOL cap -2000 352 R270
WINDOW 0 32 32 VTop 2
WINDOW 3 0 32 VBottom 2
SYMATTR InstName C7
SYMATTR Value {Cdes}
SYMBOL cap -1504 352 R270
WINDOW 0 32 32 VTop 2
WINDOW 3 0 32 VBottom 2
SYMATTR InstName C8
SYMATTR Value {Cdes}
SYMBOL cap -1744 896 R270
WINDOW 0 32 32 VTop 2
WINDOW 3 0 32 VBottom 2
SYMATTR InstName C9
SYMATTR Value {Cdes}
TEXT -1880 16 Left 2 !;op
TEXT -1840 568 Left 2 !.param VINDC 6.35
TEXT -1840 624 Left 2 !.param VINAC 1
TEXT -1560 624 Left 2 !.param VREFDC=1.2
TEXT -1560 656 Left 2 !.param VREFAC 0
TEXT -1888 -200 Left 2 !.param RL=6.5
TEXT -1840 672 Left 2 ;.dc Vreg1 4 24
TEXT -1888 -160 Left 2 ;.step param RL 1u 12 0.2
TEXT -1912 -544 Left 2 !.MODEL TIP42C PNP(Is=66.19f Xti=3 Eg=1.11 Vaf=100 Bf=137.6 Ise=862.2f Ne=1.481 Ikf=1.642 Nk=.5695 Xtb=2 Br=5.88 Isc=273.5f Nc=1.24 Ikr=3.555 Rc=79.39m Cjc=870.4p Mjc=.6481 Vjc=.75 Fc=.5 Cje=390.1p Mje=.4343 Vje=.75 Tr=235.4n Tf=23.21n Itf=71.33 Xtf=5.982 Vtf=10 Rb=.1 Vceo=100 Icrating=6 mfg=Texas)
TEXT -1912 -504 Left 2 !.MODEL TIP41C NPN (IS=7.55826e-11 BF=260.542 NF=1.11221 VAF=100 IKF=0.526814 ISE=1e-08 NE=2.18072 BR=26.0542 NR=1.5 VAR=1000 IKR=3.54059 ISC=1e-08 NC=1.63849 RB=4.56157 IRB=0.1 RBM=0.1 RE=0.0162111 RC=0.0810556 XTB=0.1 XTI=1 EG=1.206 CJE=1.93296e-10 VJE=0.4 MJE=0.259503 TF=1e-08 XTF=4.06972 VTF=7.1157 ITF=0.001 CJC=1.09657e-10 VJC=0.730921 MJC=0.23 XCJC=0.803085 FC=0.8 TR=9.01013e-08 PTF=0 Vceo=100 ICrating=6 mfg=ON_Semi)
TEXT -1880 -32 Left 2 !.inc LM324.lib
TEXT -1880 72 Left 2 ;.tran 0.99999
TEXT -1880 112 Left 2 ;R = 100*(1-TIME)
TEXT -1024 160 Left 2 !.param SELA=5
TEXT -1264 -208 Left 2 !.ac dec 1000 1 1G
TEXT -1264 -168 Left 2 ;.step param RL list 1 10
TEXT -1024 200 Left 2 ;.step param SELA list 0 5
TEXT -1264 -120 Left 2 ;.step param Cvar list 1 100n 10n 1n
TEXT -1264 -72 Left 2 ;.tran 0 6m 0 0.01m
TEXT -1264 16 Left 2 ;.step param list CL 1u 2.2u 15u
TEXT -1264 56 Left 2 !.param CL 2.2u
TEXT -1872 208 Left 2 !.param Cdes 10u
