Version 4
SHEET 1 2200 680
WIRE -32 -944 -128 -944
WIRE 144 -944 32 -944
WIRE -368 -832 -368 -848
WIRE -304 -832 -368 -832
WIRE -224 -816 -240 -816
WIRE -368 -784 -368 -832
WIRE -400 -752 -528 -752
WIRE -48 -752 -48 -784
WIRE -304 -736 -304 -752
WIRE -304 -736 -320 -736
WIRE -240 -736 -240 -816
WIRE -240 -736 -304 -736
WIRE -224 -736 -240 -736
WIRE -128 -736 -128 -944
WIRE -128 -736 -144 -736
WIRE -80 -736 -128 -736
WIRE -400 -720 -448 -720
WIRE 144 -720 144 -944
WIRE 144 -720 -16 -720
WIRE 160 -720 144 -720
WIRE -80 -704 -128 -704
WIRE 480 -576 480 -592
WIRE 656 -576 480 -576
WIRE -448 -560 -448 -720
WIRE -384 -560 -448 -560
WIRE -240 -560 -240 -736
WIRE -240 -560 -304 -560
WIRE 480 -528 480 -576
WIRE 144 -496 144 -720
WIRE 448 -496 144 -496
WIRE 656 -480 656 -496
WIRE 656 -480 528 -480
WIRE 800 -480 656 -480
WIRE 448 -464 400 -464
WIRE -448 -448 -448 -560
WIRE -384 -448 -448 -448
WIRE 144 -448 144 -496
WIRE 144 -448 -304 -448
WIRE 400 -400 400 -464
WIRE 400 -400 368 -400
WIRE -528 -384 -528 -752
WIRE -128 -384 -128 -704
WIRE 480 -336 480 -432
WIRE 160 -272 144 -272
WIRE 256 -272 240 -272
WIRE 208 -240 208 -336
WIRE -48 -224 -48 -320
WIRE 0 -224 -48 -224
WIRE 144 -224 144 -272
WIRE 144 -224 80 -224
WIRE 176 -224 144 -224
WIRE 256 -208 256 -272
WIRE 256 -208 240 -208
WIRE 400 -208 400 -400
WIRE 400 -208 256 -208
WIRE -736 -192 -768 -192
WIRE -512 -192 -656 -192
WIRE -240 -192 -304 -192
WIRE -112 -192 -160 -192
WIRE 0 -192 -112 -192
WIRE 128 -192 80 -192
WIRE 176 -192 128 -192
WIRE -512 -176 -512 -192
WIRE 640 -176 640 -288
WIRE 864 -176 864 -288
WIRE 128 -160 128 -192
WIRE -304 -128 -304 -192
WIRE -112 -128 -112 -192
WIRE 208 -128 208 -176
WIRE -768 -112 -768 -192
WIRE -512 -80 -512 -96
WIRE 864 -64 864 -96
WIRE 992 -64 864 -64
WIRE 864 -48 864 -64
WIRE 128 -32 128 -80
WIRE -768 32 -768 -32
WIRE -512 32 -512 0
WIRE -304 32 -304 -48
WIRE -112 32 -112 -48
WIRE 640 32 640 -96
WIRE 864 112 864 32
FLAG 864 -288 VCC
IOPIN 864 -288 BiDir
FLAG -368 -848 VCC
IOPIN -368 -848 BiDir
FLAG -48 -784 VCC
IOPIN -48 -784 BiDir
FLAG -224 -816 Va
IOPIN -224 -816 Out
FLAG 160 -720 Vb
IOPIN 160 -720 Out
FLAG -768 32 0
FLAG 480 -592 VCC
IOPIN 480 -592 BiDir
FLAG 368 -400 Vr
IOPIN 368 -400 Out
FLAG 800 -480 Vo
IOPIN 800 -480 Out
FLAG -512 32 0
FLAG 208 -336 VCC
IOPIN 208 -336 BiDir
FLAG 640 32 0
FLAG 992 -64 0
FLAG 864 112 -VCC
IOPIN 864 112 BiDir
FLAG -528 -384 0
FLAG -128 -384 0
FLAG -368 -688 -VCC
IOPIN -368 -688 BiDir
FLAG -48 -688 -VCC
IOPIN -48 -688 BiDir
FLAG 208 -128 -VCC
IOPIN 208 -128 BiDir
FLAG 480 -336 0
FLAG 128 -32 0
FLAG 640 -288 Vref
IOPIN 640 -288 BiDir
FLAG -48 -320 Vref
IOPIN -48 -320 BiDir
FLAG -304 32 0
FLAG -112 32 0
SYMBOL res -128 -752 R90
WINDOW 0 0 56 VBottom 2
WINDOW 3 32 56 VTop 2
SYMATTR InstName R5
SYMATTR Value 66k
SYMBOL voltage 864 -192 R0
WINDOW 123 0 0 Left 0
WINDOW 39 0 0 Left 0
SYMATTR InstName V1
SYMATTR Value 12
SYMBOL res -288 -576 R90
WINDOW 0 0 56 VBottom 2
WINDOW 3 32 56 VTop 2
SYMATTR InstName R3
SYMATTR Value 200k
SYMBOL res -288 -464 R90
WINDOW 0 0 56 VBottom 2
WINDOW 3 32 56 VTop 2
SYMATTR InstName R4
SYMATTR Value 27k
SYMBOL voltage -768 -128 R0
WINDOW 123 0 0 Left 0
WINDOW 39 0 0 Left 0
WINDOW 0 -40 13 Left 2
WINDOW 3 -236 106 Left 2
SYMATTR InstName V2
SYMATTR Value SINE(6.35 0.1 200k)
SYMBOL cap 32 -960 R90
WINDOW 0 0 32 VBottom 2
WINDOW 3 32 32 VTop 2
SYMATTR InstName C1
SYMATTR Value 100p
SYMBOL TL081 -48 -784 R0
SYMATTR InstName U7
SYMBOL res -496 -80 R180
WINDOW 0 36 76 Left 2
WINDOW 3 36 40 Left 2
SYMATTR InstName R7
SYMATTR Value 68
SYMBOL TL081 208 -272 R0
WINDOW 0 34 92 Left 2
WINDOW 3 17 125 Left 2
SYMATTR InstName U1
SYMBOL voltage 640 -192 R0
WINDOW 123 0 0 Left 0
WINDOW 39 0 0 Left 0
SYMATTR InstName V3
SYMATTR Value 2.5
SYMBOL voltage 864 -64 R0
WINDOW 123 0 0 Left 0
WINDOW 39 0 0 Left 0
SYMATTR InstName V4
SYMATTR Value 12
SYMBOL res -320 -848 R0
WINDOW 0 33 46 Left 2
WINDOW 3 30 78 Left 2
SYMATTR InstName R2
SYMATTR Value 10k
SYMBOL res 640 -592 R0
SYMATTR InstName R8
SYMATTR Value 10k
SYMBOL res 96 -208 R90
WINDOW 0 65 56 VBottom 2
WINDOW 3 63 56 VTop 2
SYMATTR InstName R10
SYMATTR Value 100k
SYMBOL res 96 -240 R90
WINDOW 0 -24 59 VBottom 2
WINDOW 3 -28 59 VTop 2
SYMATTR InstName R11
SYMATTR Value 100k
SYMBOL res 256 -288 R90
WINDOW 0 -8 110 VBottom 2
WINDOW 3 -13 107 VTop 2
SYMATTR InstName R12
SYMATTR Value 100k
SYMBOL res 112 -176 R0
SYMATTR InstName R13
SYMATTR Value 100k
SYMBOL res -640 -208 R90
WINDOW 0 0 56 VBottom 2
WINDOW 3 32 56 VTop 2
SYMATTR InstName R14
SYMATTR Value 120
SYMBOL res -528 -96 R0
WINDOW 0 -47 35 Left 2
WINDOW 3 -38 59 Left 2
SYMATTR InstName R15
SYMATTR Value 10
SYMBOL res -128 -144 R0
SYMATTR InstName R6
SYMATTR Value 250
SYMBOL res -144 -208 R90
WINDOW 0 0 56 VBottom 2
WINDOW 3 32 56 VTop 2
SYMATTR InstName R16
SYMATTR Value 8.2k
SYMBOL voltage -304 -144 R0
SYMATTR InstName V5
SYMATTR Value 12
SYMBOL Comparators\\LTC6702 480 -480 R0
SYMATTR InstName U4
SYMBOL Comparators\\LTC6702 -368 -736 R0
WINDOW 0 -80 -39 Left 2
SYMATTR InstName U5
TEXT -784 88 Left 2 !.tran 0 30u 14u uic
TEXT 1032 -968 Left 2 !.model IRF9540 PMOS(Level=3 Gamma=0 Delta=0 Eta=0 Theta=0 Kappa=0.2 Vmax=0 Xj=0\n+ Tox=100n Uo=300 Phi=.6 Rs=64.15m Kp=10.18u W=1.5 L=2u\n+ Vto=-3.646 Rd=62.45m Rds=444.4K Cbd=2.029n Pb=.8 Mj=.5 Fc=.5\n+ Cgso=1.033n Cgdo=469.4p Rg=.3371 Is=54.08E-18 N=2 Tt=140n)
TEXT 1040 -848 Left 2 !.model 1N4002 D (Is=14.11n N=1.984 Rs=33.89E-3 Ikf=94.81 Xti=3 Eg=1.110 Cjo=51.17E-12)
TEXT -784 128 Left 2 !.inc LM324.lib
TEXT -992 -536 Left 2 ;R4 Aumentarla\nAumenta la ampl de la triang\nDismin la frec
TEXT -992 -656 Left 2 ;R3 Aumentarla\nDisminuye la ampl de la triang\nAumenta la frec
TEXT -120 -1096 Left 2 ;C1 Aumentarla\n Aumenta la ampl de la triang\nDisminuye la frec
TEXT 1040 -784 Left 2 !.lib LM393.lib
