Version 4
SHEET 1 2712 724
WIRE -800 -720 -800 -736
WIRE -800 -592 -800 -720
WIRE -656 -592 -800 -592
WIRE -656 -544 -656 -592
WIRE -1328 -512 -1328 -560
WIRE -1248 -512 -1328 -512
WIRE -1072 -512 -1184 -512
WIRE -960 -512 -976 -512
WIRE -848 -512 -880 -512
WIRE -800 -480 -800 -496
WIRE -656 -480 -800 -480
WIRE -1072 -464 -1072 -512
WIRE -1072 -464 -1104 -464
WIRE -1072 -448 -1072 -464
WIRE -1328 -400 -1328 -512
WIRE -1328 -400 -1520 -400
WIRE -1248 -400 -1328 -400
WIRE -1104 -400 -1104 -464
WIRE -1104 -400 -1120 -400
WIRE -1520 -384 -1520 -400
WIRE -976 -368 -976 -512
WIRE -976 -368 -1120 -368
WIRE 544 -352 400 -352
WIRE 752 -352 624 -352
WIRE 896 -352 832 -352
WIRE 928 -352 896 -352
WIRE 1152 -352 1008 -352
WIRE 1200 -352 1152 -352
WIRE 1248 -352 1200 -352
WIRE 1520 -352 1248 -352
WIRE -1248 -336 -1392 -336
WIRE -1072 -336 -1072 -384
WIRE -1072 -336 -1120 -336
WIRE -800 -336 -800 -480
WIRE -800 -336 -1072 -336
WIRE -528 -336 -800 -336
WIRE 1520 -336 1520 -352
WIRE 400 -320 400 -352
WIRE -1520 -304 -1520 -320
WIRE -1280 -304 -1520 -304
WIRE -1248 -304 -1280 -304
WIRE -1008 -304 -1120 -304
WIRE 1248 -272 1248 -352
WIRE -1280 -256 -1280 -304
WIRE 1152 -256 1152 -352
WIRE 1520 -224 1520 -256
WIRE 1584 -224 1520 -224
WIRE -800 -208 -800 -336
WIRE -656 -208 -800 -208
WIRE 928 -192 928 -352
WIRE 928 -192 704 -192
WIRE -1392 -176 -1392 -336
WIRE 400 -176 400 -240
WIRE 1008 -176 1008 -352
WIRE 1008 -176 720 -176
WIRE 1520 -176 1520 -224
WIRE -656 -160 -656 -208
WIRE 1152 -160 1152 -192
WIRE 1200 -160 1152 -160
WIRE 1248 -160 1248 -192
WIRE 1248 -160 1200 -160
WIRE 1200 -144 1200 -160
WIRE -1008 -128 -1008 -304
WIRE -960 -128 -1008 -128
WIRE -848 -128 -880 -128
WIRE -800 -96 -800 -112
WIRE -656 -96 -800 -96
WIRE 720 -80 720 -176
WIRE 736 -80 720 -80
WIRE 928 -80 928 -192
WIRE 928 -80 864 -80
WIRE 1520 -80 1520 -96
WIRE -800 -48 -800 -96
WIRE 704 -32 704 -192
WIRE 736 -32 704 -32
WIRE 928 -32 864 -32
WIRE 800 0 800 -16
WIRE 928 0 928 -32
WIRE 928 128 928 80
WIRE 800 224 800 0
WIRE 704 272 672 272
WIRE 672 336 672 272
WIRE 800 336 800 304
WIRE 672 352 672 336
WIRE 672 448 672 432
WIRE 976 464 976 448
WIRE 976 496 976 464
WIRE 1584 512 1584 -224
WIRE 1584 512 1008 512
WIRE 672 528 672 448
WIRE 944 528 672 528
WIRE 1072 544 1008 544
WIRE 1072 592 1072 544
WIRE 976 640 976 560
WIRE 1072 704 1072 672
FLAG 928 128 0
FLAG 1200 -144 0
FLAG 1200 -352 out
FLAG 896 -352 sw
FLAG 800 0 d
FLAG 976 640 0
FLAG 1072 704 0
FLAG 976 464 in
FLAG 800 336 0
FLAG 704 272 ctrl
IOPIN 704 272 Out
FLAG 672 336 x
FLAG 672 448 y
FLAG 1520 -80 0
FLAG -528 -336 Vd
FLAG -800 -48 0
FLAG -800 -720 vdd
FLAG -1280 -256 0
FLAG -1328 -560 vcc
FLAG -1392 -176 vcc
FLAG 400 -176 0
SYMBOL cap 1136 -256 R0
WINDOW 0 -44 28 Left 2
WINDOW 3 -47 63 Left 2
SYMATTR InstName C1
SYMATTR Value 150n
SYMBOL res 1232 -288 R0
SYMATTR InstName Rload
SYMATTR Value {RLOAD}
SYMBOL res 848 -368 R90
WINDOW 0 0 56 VBottom 2
WINDOW 3 32 56 VTop 2
SYMATTR InstName RL
SYMATTR Value 22m
SYMBOL ccm1 800 -48 M0
SYMATTR InstName U1
SYMATTR Value CCM2
SYMATTR SpiceLine Ron=8m
SYMATTR SpiceLine2 VD=0.5 RD=0.05
SYMBOL Opamps\\LT1215 976 464 M0
SYMATTR InstName U2
SYMBOL voltage 1072 576 R0
WINDOW 123 24 116 Left 2
WINDOW 39 0 0 Left 2
SYMATTR Value2 AC 0
SYMATTR InstName Vref1
SYMATTR Value PULSE(0 12 0 1n 1n {ton} {T})
SYMBOL bv 800 208 R0
SYMATTR InstName B1
SYMATTR Value V=limit(v(ctrl), 0.01, 0.9)
SYMBOL voltage 672 336 R0
WINDOW 0 41 45 Left 2
WINDOW 123 37 65 Left 2
WINDOW 39 0 0 Left 2
SYMATTR InstName Vz1
SYMATTR Value2 AC 1
SYMATTR Value ""
SYMBOL res 1504 -352 R0
SYMATTR InstName R4
SYMATTR Value 2k
SYMBOL res 1504 -192 R0
SYMATTR InstName R5
SYMATTR Value 1k
SYMBOL res 912 -16 R0
SYMATTR InstName R6
SYMATTR Value 8.54m
SYMBOL ind 528 -336 R270
WINDOW 0 32 56 VTop 2
WINDOW 3 5 56 VBottom 2
SYMATTR InstName IL1
SYMATTR Value 738µ
SYMBOL res -864 -528 R90
WINDOW 0 0 56 VBottom 2
WINDOW 3 32 56 VTop 2
SYMATTR InstName R2
SYMATTR Value 10
SYMBOL cap -1088 -448 R0
SYMATTR InstName C3
SYMATTR Value 0.33µ
SYMBOL schottky -1248 -496 R270
WINDOW 0 32 32 VTop 2
WINDOW 3 0 32 VBottom 2
SYMATTR InstName D1
SYMATTR Value D1n5822rl
SYMATTR Description Diode
SYMATTR Type diode
SYMBOL cap -1536 -384 R0
SYMATTR InstName C4
SYMATTR Value 1µ
SYMBOL res -864 -144 R90
WINDOW 0 0 56 VBottom 2
WINDOW 3 32 56 VTop 2
SYMATTR InstName R3
SYMATTR Value 10
SYMBOL schottky -640 -480 R180
WINDOW 0 24 64 Left 2
WINDOW 3 -4 2 Right 2
SYMATTR InstName D2
SYMATTR Value D1n5822rl
SYMATTR Description Diode
SYMATTR Type diode
SYMBOL AutoGenerated\\IR2104 -1184 -352 R0
SYMATTR InstName U3
SYMBOL nmos -848 -592 R0
SYMATTR InstName M1
SYMATTR Value IRFZ44N
SYMBOL schottky -640 -96 R180
WINDOW 0 24 64 Left 2
WINDOW 3 -4 2 Right 2
SYMATTR InstName D3
SYMATTR Value D1n5822rl
SYMATTR Description Diode
SYMATTR Type diode
SYMBOL nmos -848 -208 R0
SYMATTR InstName M2
SYMATTR Value IRFZ44N
SYMBOL voltage 400 -336 R0
WINDOW 123 24 44 Left 2
WINDOW 39 0 0 Left 0
SYMATTR Value2 AC 0
SYMATTR InstName Vg1
SYMATTR Value 12
TEXT 976 -80 Left 2 ;Simulation directives
TEXT 976 -40 Left 2 !.lib average.lib
TEXT 1088 112 Left 2 !.ac dec 300 1 100k
TEXT 1088 80 Left 2 ;.step param RLOAD list 8 20
TEXT 1088 48 Left 2 !;dc Vduty 0.2 0.9 0.01
TEXT 1088 144 Left 2 !;tran 0 12m 7m 1u
TEXT 2160 -272 Left 2 !.lib IR2104.lib
TEXT 2160 -304 Left 2 !.lib 1N5822RL.LIB
TEXT 2168 -88 Left 2 !.param TiempoMuerto 310n
TEXT 2184 -144 Left 2 ;Dutys: {0.52916, 0.17638888}
TEXT 2168 -8 Left 2 !.param Duty (6.35/Vin)
TEXT 2168 112 Left 2 !.param fsw  200k
TEXT 2160 32 Left 2 !.param ton (Duty/fsw)
TEXT 2168 -56 Left 2 !.param Vin 12
TEXT 2160 72 Left 2 !.param T (1/fsw)
TEXT 2160 144 Left 2 ;.param Duty (6.35/Vin * (1+TiempoMuerto/T))
TEXT 1088 184 Left 2 !.param RLOAD 330
TEXT 1104 224 Left 2 !.op
