Version 4
SHEET 1 3480 1872
WIRE 256 -160 256 -304
WIRE 304 -160 256 -160
WIRE 352 -160 304 -160
WIRE 352 -112 352 -160
WIRE 304 -96 304 -160
WIRE 304 -96 272 -96
WIRE -272 -80 -272 -128
WIRE -192 -80 -272 -80
WIRE -16 -80 -128 -80
WIRE 96 -80 80 -80
WIRE 208 -80 176 -80
WIRE 304 -64 272 -64
WIRE 304 -48 304 -64
WIRE 352 -48 304 -48
WIRE -16 -32 -16 -80
WIRE -16 -32 -48 -32
WIRE -16 -16 -16 -32
WIRE -272 32 -272 -80
WIRE -272 32 -464 32
WIRE -192 32 -272 32
WIRE -48 32 -48 -32
WIRE -48 32 -64 32
WIRE -464 48 -464 32
WIRE -192 64 -208 64
WIRE 80 64 80 -80
WIRE 80 64 -64 64
WIRE 304 64 304 -48
WIRE 304 64 256 64
WIRE -192 96 -336 96
WIRE -16 96 -16 48
WIRE -16 96 -64 96
WIRE 256 96 256 64
WIRE 256 96 -16 96
WIRE 528 96 256 96
WIRE 672 96 528 96
WIRE 848 96 752 96
WIRE 992 96 848 96
WIRE -464 128 -464 112
WIRE -224 128 -464 128
WIRE -192 128 -224 128
WIRE 48 128 -64 128
WIRE -224 176 -224 128
WIRE 848 192 848 96
WIRE 992 192 992 96
WIRE 256 224 256 96
WIRE 304 224 256 224
WIRE 352 224 304 224
WIRE -1456 240 -1456 176
WIRE -1216 240 -1216 176
WIRE -336 256 -336 96
WIRE 352 272 352 224
WIRE 304 288 304 224
WIRE 304 288 272 288
WIRE 48 304 48 128
WIRE 96 304 48 304
WIRE 208 304 176 304
WIRE 304 320 272 320
WIRE 304 336 304 320
WIRE 352 336 304 336
WIRE -960 352 -960 304
WIRE -1456 368 -1456 320
WIRE -1216 368 -1216 320
WIRE 848 368 848 256
WIRE 992 368 992 272
WIRE 992 368 848 368
WIRE 304 384 304 336
FLAG 848 368 0
FLAG 848 96 Vo
FLAG 528 96 Vd
FLAG -960 352 0
FLAG -960 224 pwm
FLAG -1216 368 0
FLAG -1216 176 vdd
FLAG 304 384 0
FLAG 256 -304 vdd
FLAG -208 64 pwm
FLAG -224 176 0
FLAG -272 -128 vcc
FLAG -336 256 vcc
FLAG -1456 368 0
FLAG -1456 176 vcc
SYMBOL voltage -960 208 R0
WINDOW 3 -135 169 Left 2
WINDOW 123 0 0 Left 0
WINDOW 39 0 0 Left 0
SYMATTR Value PULSE(0 12 0 1n 1n {ton} {T})
SYMATTR InstName V2
SYMBOL ind 656 112 R270
WINDOW 0 32 56 VTop 2
WINDOW 3 5 56 VBottom 2
SYMATTR InstName IL
SYMATTR Value 700µ
SYMBOL cap 832 192 R0
SYMATTR InstName C1
SYMATTR Value 150n
SYMBOL res 976 176 R0
SYMATTR InstName R1
SYMATTR Value 330
SYMBOL voltage -1216 224 R0
WINDOW 123 0 0 Left 0
WINDOW 39 0 0 Left 0
SYMATTR InstName V1
SYMATTR Value {Vin}
SYMBOL res 192 -96 R90
WINDOW 0 0 56 VBottom 2
WINDOW 3 32 56 VTop 2
SYMATTR InstName R2
SYMATTR Value 10
SYMBOL cap -32 -16 R0
SYMATTR InstName C2
SYMATTR Value 0.33µ
SYMBOL schottky -192 -64 R270
WINDOW 0 32 32 VTop 2
WINDOW 3 0 32 VBottom 2
SYMATTR InstName D1
SYMATTR Value D1n5822rl
SYMATTR Description Diode
SYMATTR Type diode
SYMBOL cap -480 48 R0
SYMATTR InstName C3
SYMATTR Value 1µ
SYMBOL res 192 288 R90
WINDOW 0 0 56 VBottom 2
WINDOW 3 32 56 VTop 2
SYMATTR InstName R3
SYMATTR Value 10
SYMBOL voltage -1456 224 R0
WINDOW 123 0 0 Left 0
WINDOW 39 0 0 Left 0
SYMATTR InstName V3
SYMATTR Value 12
SYMBOL IR2104 -128 80 R0
SYMATTR InstName U1
SYMBOL irlz44zsl 240 -80 R0
SYMATTR InstName U2
SYMBOL irlz44zsl 240 304 R0
SYMATTR InstName U3
SYMBOL schottky 368 -48 R180
WINDOW 0 24 64 Left 2
WINDOW 3 -4 2 Right 2
SYMATTR InstName D2
SYMATTR Value D1n5822rl
SYMATTR Description Diode
SYMATTR Type diode
SYMBOL schottky 368 336 R180
WINDOW 0 24 64 Left 2
WINDOW 3 -125 3 Left 2
SYMATTR InstName D3
SYMATTR Value D1n5822rl
SYMATTR Description Diode
SYMATTR Type diode
TEXT 1264 272 Left 2 !.tran 0 400u 0 uic
TEXT 1240 80 Left 2 !.MEASURE TRAN Vo AVG(V(Vo)) FROM=0.2ms TO=2ms
TEXT 1240 144 Left 2 !.MEASURE TRAN IL AVG(I(IL)) FROM=0.2ms TO=2ms
TEXT 1264 232 Left 2 !.lib IR2104.lib
TEXT 1272 184 Left 2 !.lib 1N5822RL.LIB
TEXT 2016 56 Left 2 !.option noopiter
TEXT 2024 88 Left 2 ;.option gmin=1e-9
TEXT -1120 496 Left 2 !.param TiempoMuerto 310n
TEXT -1104 440 Left 2 ;Dutys: {0.52916, 0.17638888}
TEXT -1120 576 Left 2 !.param Duty (6.35/Vin)
TEXT -1120 696 Left 2 !.param fsw  200k
TEXT -1128 616 Left 2 !.param ton (Duty/fsw)
TEXT -1120 528 Left 2 !.param Vin 12
TEXT -1128 656 Left 2 !.param T (1/fsw)
TEXT 1240 328 Left 2 !.lib irlz44zsl.spi
TEXT -1128 728 Left 2 ;.param Duty (6.35/Vin * (1+TiempoMuerto/T))
