Version 4
SHEET 1 2072 772
WIRE 320 64 -272 64
WIRE -272 128 -272 64
WIRE -144 128 -272 128
WIRE -64 128 -144 128
WIRE 320 128 320 64
WIRE 320 128 272 128
WIRE -272 176 -272 128
WIRE -144 208 -144 128
WIRE -64 208 -144 208
WIRE 528 208 272 208
WIRE 624 208 528 208
WIRE 784 208 704 208
WIRE 832 208 784 208
WIRE 944 208 832 208
WIRE 1216 208 944 208
WIRE 784 240 784 208
WIRE 1216 240 1216 208
WIRE 528 256 528 208
WIRE 944 256 944 208
WIRE -272 288 -272 256
WIRE -272 288 -416 288
WIRE -64 288 -272 288
WIRE 304 288 272 288
WIRE 384 288 368 288
WIRE -416 336 -416 288
WIRE 384 336 384 288
WIRE -272 352 -272 288
WIRE -64 368 -112 368
WIRE 320 368 272 368
WIRE 528 368 528 320
WIRE 784 368 784 304
WIRE 1216 368 1216 320
WIRE 320 416 320 368
WIRE 944 416 944 336
WIRE 944 416 320 416
WIRE 944 464 944 416
WIRE -416 480 -416 416
WIRE -272 480 -272 416
WIRE -112 480 -112 368
WIRE 944 560 944 544
FLAG -416 480 0
FLAG -272 480 0
FLAG 384 336 0
FLAG 528 368 0
FLAG 784 368 0
FLAG 832 208 Vo
FLAG 944 560 0
FLAG -112 480 0
FLAG 1216 368 0
FLAG 528 208 Vsw
FLAG -416 288 VIN
SYMBOL voltage -416 320 R0
WINDOW 123 0 0 Left 0
WINDOW 39 24 132 Left 0
SYMATTR InstName VIN
SYMATTR Value 12
SYMBOL res -256 272 R180
WINDOW 0 -21 66 Left 0
WINDOW 3 -29 49 Left 0
SYMATTR InstName Rsc
SYMATTR Value 0.15
SYMBOL cap 304 304 R270
WINDOW 0 32 32 VTop 0
WINDOW 3 0 32 VBottom 0
SYMATTR InstName CT
SYMATTR Value 664p
SYMBOL schottky 544 320 R180
WINDOW 0 -26 43 Left 0
WINDOW 3 -48 20 Left 0
SYMATTR InstName D1
SYMATTR Value 1N5818
SYMATTR Description Diode
SYMATTR Type diode
SYMBOL res 928 240 R0
SYMATTR InstName R2
SYMATTR Value 10k
SYMBOL res 928 448 R0
SYMATTR InstName R1
SYMATTR Value 2450
SYMBOL res 1200 224 R0
SYMATTR InstName RL
SYMATTR Value 10
SYMBOL polcap -288 352 R0
WINDOW 39 28 102 Left 0
WINDOW 40 28 92 Left 0
WINDOW 3 23 51 Left 2
SYMATTR Value 100µ
SYMATTR InstName C1
SYMBOL mc34063 176 224 R0
SYMATTR InstName U1
SYMBOL ind 608 224 R270
WINDOW 0 32 56 VTop 2
WINDOW 3 5 56 VBottom 2
SYMATTR InstName L1
SYMATTR Value 30µ
SYMATTR SpiceLine Ipk=0.39 Rser=0.72 Rpar=0 Cpar=0 mfg="Coiltronics" pn="CTX300-3"
SYMBOL polcap 768 240 R0
SYMATTR InstName Co
SYMATTR Value 60.6µ
TEXT 1528 256 Left 0 !.tran 0 5m 1u 100n uic
TEXT 1528 208 Left 0 !.inc MC34063.lib
TEXT 1536 288 Left 2 !.options Gmin=1e-9  method=Gear
TEXT 1616 408 Left 2 ;-100*((V(vo)*I(RL))/(V(VIN)*I(VIN)))
TEXT 1544 320 Left 2 !.param RL 10
