Version 4
SHEET 1 1040 1772
WIRE 240 -64 -80 -64
WIRE 432 -64 240 -64
WIRE 480 -64 432 -64
WIRE 624 -64 560 -64
WIRE 944 -64 624 -64
WIRE 432 0 432 -64
WIRE -80 80 -80 -64
WIRE 432 128 432 80
WIRE 624 224 624 -64
WIRE -80 256 -80 160
WIRE 432 256 432 208
WIRE 592 256 432 256
WIRE 432 320 432 256
WIRE 624 352 624 288
WIRE 432 448 432 400
WIRE 240 752 240 -64
WIRE 448 752 240 752
WIRE 720 752 608 752
WIRE 944 752 720 752
WIRE 720 816 720 752
WIRE 528 928 528 848
WIRE 720 928 720 896
WIRE 720 928 528 928
WIRE 720 960 720 928
WIRE 720 1072 720 1040
WIRE 720 1216 720 1152
FLAG -80 256 0
FLAG 432 448 0
FLAG 624 352 0
FLAG 944 -64 Vref
FLAG 720 1216 0
FLAG 944 752 VPOSA
SYMBOL tl431 608 224 R0
WINDOW 0 32 0 Left 2
WINDOW 3 32 64 Left 2
SYMATTR InstName U1
SYMBOL res 464 -48 R270
WINDOW 0 32 56 VTop 2
WINDOW 3 0 56 VBottom 2
SYMATTR InstName Rs
SYMATTR Value 100
SYMBOL res 416 -16 R0
SYMATTR InstName RA1
SYMATTR Value 330
SYMBOL res 416 304 R0
SYMATTR InstName RB
SYMATTR Value 100
SYMBOL voltage -80 64 R0
SYMATTR InstName BAT
SYMATTR Value 12
SYMBOL res 416 112 R0
SYMATTR InstName RA2
SYMATTR Value 10
SYMBOL LM317 528 784 R0
WINDOW 0 -1 -45 Bottom 2
SYMATTR InstName U2
SYMBOL res 704 800 R0
SYMATTR InstName R1
SYMATTR Value 1.5k
SYMBOL res 704 944 R0
SYMATTR InstName R2A
SYMATTR Value 3.3k
SYMBOL res 704 1056 R0
SYMATTR InstName R2B
SYMATTR Value 1k
TEXT -232 -304 Left 2 !.tran 0 0.5m 0 10n
TEXT 672 160 Left 2 !.inc TL431.lib
TEXT -776 -288 Left 2 ;.SUBCKT LM317/TI in adj out\n* PEI 08/98 p62\nJ1 in out 4 JN\nQ2 5 5 6 QPL .1\nQ3 5 8 9 QNL .2\nQ4 8 5 7 QPL .1\nQ5 81 8 out QNL .2\nQ6 out 81 10 QPL .2\nQ7 12 81 13 QNL .2\n*Q8 10 5 11 QPL .2\nQ8 10A 5 11 QPL .2\nQ9 14 12 10 QPL .2\nQ10 16 5 17 QPL .2\nQ11 16 14 15 QNL .2 OFF\nQ12 out 20 16 QPL .2\nQ13 in 19 20 QNL .2\nQ14 19 5 18 QPL .2\nQ15 out 21 19 QPL .2\nQ16 21 22 16 QPL .2\nQ17 21 out 24 QNL .2\nQ18 22 22 16 QPL .2\nQ19 22 out 241 QNL .2\nQ20 out 25 16 QPL .2\nQ21 25 26 out QNL .2\nQ22A 35 35 in QPL .2\nQ22B 16 35 in QPL .2\nQ23 35 16 30 QNL .2\nQ24A 27 40 29 QNL .2\nQ24B 27 40 28 QNL .2\nQ25 in 31 41 QNL 5\nQ26 in 41 32 QNL 50\nD1 out 4 DZ\nD2 33 in DZ\nD3 29 34 DZ\nR1 in 6 310\nR2 in 7 310\nR3 in 11 190\nR4 in 17 82\nR5 in 18 5.6K\nR6 4 8 100K\nR7 8 81 130\n*R8 10 12 12.4K\nR8 10A 12 12.4K\nR9 9 out 180\nR10 13 out 4.1K\nR11 14 out 5.8K\nR12 15 out 72\nR13 20 out 5.1K\nR14 adj 24 12K\nR15 24 241 2.4K\nR16 16 25 6.7K\nR17 16 40 12K\nR18 30 41 130\nR19 16 31 370\nR20 26 27 13K\nR21 27 40 400\nR22 out 41 160\nR23 33 34 18K\nR24 28 29 160\nR25 28 32 3\nR26 32 out .1\nC1 21 out 30PF\nC2 21 adj 30PF\nC3 25 26 5PF\nCBS1 5 out 2PF\nCBS2 35 out 1PF\nCBS3 22 out 1PF\n.MODEL JN NJF (BETA=1E-4 VTO=-7)\n.MODEL DZ D(BV=6.3)\n.MODEL QNL NPN (EG=1.22 BF=80 RB=100 CCS=1.5PF TF=.3NS TR=6NS\n+ CJE=2PF CJC=1PF VAF=100 IS=1E-22 NF=1.2)\n.MODEL QPL PNP (BF=40 RB=20 TF=.6NS TR=10NS CJE=1.5PF CJC=1PF VAF=50\n+ IS=1E-22 NF=1.2)\n.ENDS LM317/TI
TEXT -1232 -288 Left 2 ;.SUBCKT LM317 1 2 3\n* IN OUT ADJ\nIADJ 1 4 50U\nVREF 4 3 1.25\nRC 1 14 0.742\nDBK 14 13 D1\nCBC 13 15 2.479N\nRBC 15 5 247\nQP 13 5 2 Q1\nRB2 6 5 124\nDSC 6 11 D1\nESC 11 2 POLY(2) (13,5) (6,5) 2.85\n+ 0 0 0 -70.1M\nDFB 6 12 D1\nEFB 12 2 POLY(2) (13,5) (6,5) 3.92\n+ -135M 0 1.21M -70.1M\nRB1 7 6 1\nEB 7 2 8 2 2.56\nCPZ 10 2 0.796U\nDPU 10 2 D1\nRZ 8 10 0.104\nRP 9 8 100\nEP 9 2 4 2 103.6\nRI 2 4 100MEG\n.MODEL Q1 NPN (IS=30F BF=100\n+ VAF=14.27 NF=1.604)\n.MODEL D1 D (IS=30F N=1.604)\n.ENDS LM317
