Version 4
SHEET 1 2324 2468
WIRE 304 -64 192 -64
WIRE 432 -64 384 -64
WIRE 624 -64 432 -64
WIRE 704 -64 624 -64
WIRE 864 -64 784 -64
WIRE 944 -64 864 -64
WIRE 432 -32 432 -64
WIRE 864 -32 864 -64
WIRE -16 64 -16 0
WIRE 624 64 624 -64
WIRE 864 80 864 48
WIRE 432 96 432 48
WIRE 592 96 432 96
WIRE 432 144 432 96
WIRE -16 192 -16 144
WIRE 624 192 624 128
WIRE 864 208 864 160
WIRE 432 256 432 224
WIRE -16 416 -16 352
WIRE 352 432 208 432
WIRE 480 432 432 432
WIRE 528 432 480 432
WIRE 672 432 608 432
WIRE 672 464 672 432
WIRE 960 528 960 464
WIRE 960 528 880 528
WIRE -16 544 -16 496
WIRE 480 544 480 432
WIRE 752 544 480 544
WIRE 960 560 880 560
WIRE 752 576 464 576
WIRE 1616 576 1616 544
WIRE 1040 592 880 592
WIRE 1616 672 1616 656
WIRE 1616 672 1504 672
WIRE 1616 688 1616 672
WIRE 1984 688 1936 688
WIRE 2112 688 2064 688
WIRE 1504 704 1504 672
WIRE 1616 800 1616 768
WIRE 896 816 608 816
WIRE 2016 832 2016 800
WIRE 896 848 896 816
WIRE 896 848 688 848
WIRE 1824 848 1744 848
WIRE 1936 848 1936 688
WIRE 1936 848 1904 848
WIRE 1984 848 1936 848
WIRE 608 864 608 816
WIRE 2112 864 2112 688
WIRE 2112 864 2048 864
WIRE 2176 864 2112 864
WIRE 2304 864 2256 864
WIRE 1744 880 1744 848
WIRE 1984 880 1936 880
WIRE 688 912 688 848
WIRE 720 912 688 912
WIRE 896 912 896 848
WIRE 896 912 848 912
WIRE 2304 912 2304 864
WIRE 1936 928 1936 880
WIRE 2016 928 2016 896
WIRE 688 944 688 912
WIRE 720 944 688 944
WIRE 1072 944 848 944
WIRE 1120 944 1072 944
WIRE 1248 944 1200 944
WIRE 368 976 288 976
WIRE 512 976 448 976
WIRE 608 976 608 944
WIRE 608 976 512 976
WIRE 720 976 608 976
WIRE 960 976 848 976
WIRE 1248 976 1248 944
WIRE 512 992 512 976
WIRE 1744 992 1744 960
WIRE 608 1008 608 976
WIRE 720 1008 688 1008
WIRE 896 1008 848 1008
WIRE 960 1008 960 976
WIRE 1072 1040 1072 944
WIRE 512 1104 512 1072
WIRE 608 1104 608 1072
WIRE 560 1200 528 1200
WIRE 688 1200 688 1008
WIRE 688 1200 640 1200
WIRE 736 1200 688 1200
WIRE 896 1200 896 1008
WIRE 896 1200 816 1200
WIRE 960 1200 960 1072
WIRE 960 1200 896 1200
WIRE 1072 1200 1072 1104
WIRE 1072 1200 960 1200
WIRE 1136 1200 1072 1200
WIRE 1072 1232 1072 1200
WIRE 528 1248 528 1200
WIRE 1072 1328 1072 1296
FLAG -16 192 0
FLAG 432 256 0
FLAG 624 192 0
FLAG 944 -64 Vref
FLAG 864 208 0
FLAG 192 -64 Vbat
FLAG -16 0 Vbat
FLAG 464 576 Vbuck
FLAG 672 464 0
FLAG 960 560 0
FLAG 960 464 Vbat
FLAG -16 544 0
FLAG -16 352 Vbuck
FLAG 1040 592 Venable
FLAG 208 432 Vbat
FLAG 608 1104 0
FLAG 528 1248 0
FLAG 1248 976 0
FLAG 1072 1328 0
FLAG 1136 1200 -VPOSA
FLAG 512 1104 0
FLAG 288 976 Vbuck
FLAG 1936 928 0
FLAG 2304 912 0
FLAG 1744 992 0
FLAG 1504 704 0
FLAG 1616 544 alim
FLAG 1616 800 nalim
FLAG 2016 800 alim
FLAG 2016 928 nalim
SYMBOL tl431 608 64 R0
WINDOW 0 32 0 Left 2
WINDOW 3 32 64 Left 2
SYMATTR InstName U1
SYMBOL res 288 -48 R270
WINDOW 0 32 56 VTop 2
WINDOW 3 0 56 VBottom 2
SYMATTR InstName Rs
SYMATTR Value 1k
SYMBOL res 416 128 R0
SYMATTR InstName RB
SYMATTR Value 100k
SYMBOL voltage -16 48 R0
WINDOW 123 0 0 Left 0
WINDOW 39 0 0 Left 0
SYMATTR InstName BAT
SYMATTR Value 12
SYMBOL res 848 64 R0
SYMATTR InstName Ro3
SYMATTR Value 820
SYMBOL res 688 -48 R270
WINDOW 0 32 56 VTop 2
WINDOW 3 0 56 VBottom 2
SYMATTR InstName Ro1
SYMATTR Value 1k
SYMBOL res 848 -48 R0
SYMATTR InstName Ro2
SYMATTR Value 120
SYMBOL res 416 -48 R0
SYMATTR InstName RA
SYMATTR Value 10
SYMBOL voltage -16 400 R0
SYMATTR InstName Buck
SYMATTR Value 6.35
SYMBOL res 448 416 R90
WINDOW 0 0 56 VBottom 2
WINDOW 3 32 56 VTop 2
SYMATTR InstName R11
SYMATTR Value 10k
SYMBOL res 624 416 R90
WINDOW 0 0 56 VBottom 2
WINDOW 3 32 56 VTop 2
SYMATTR InstName R12
SYMATTR Value 11.24k
SYMBOL res 592 848 R0
SYMATTR InstName R1
SYMATTR Value 0.22
SYMBOL cap 592 1008 R0
SYMATTR InstName C1
SYMATTR Value 100µ
SYMBOL res 656 1184 R90
WINDOW 0 0 56 VBottom 2
WINDOW 3 32 56 VTop 2
SYMATTR InstName R2
SYMATTR Value 8.2k
SYMBOL res 832 1184 R90
WINDOW 0 0 56 VBottom 2
WINDOW 3 32 56 VTop 2
SYMATTR InstName R3
SYMATTR Value 953
SYMBOL cap 944 1008 R0
SYMATTR InstName C2
SYMATTR Value 1.5n
SYMBOL ind 1104 960 R270
WINDOW 0 32 56 VTop 2
WINDOW 3 5 56 VBottom 2
SYMATTR InstName L1
SYMATTR Value 90µ
SYMBOL cap 1056 1232 R0
SYMATTR InstName C3
SYMATTR Value 100µ
SYMBOL zener 1088 1104 R180
WINDOW 0 24 64 Left 2
WINDOW 3 -149 0 Left 2
SYMATTR InstName D1
SYMATTR Value MMBZ6V8ALY
SYMBOL res 496 976 R0
SYMATTR InstName R4
SYMATTR Value 10k
SYMBOL res 464 960 R90
WINDOW 0 0 56 VBottom 2
WINDOW 3 32 56 VTop 2
SYMATTR InstName R5
SYMATTR Value 50
SYMBOL res 1920 832 R90
WINDOW 0 0 56 VBottom 2
WINDOW 3 32 56 VTop 2
SYMATTR InstName R6
SYMATTR Value 1k
SYMBOL res 2080 672 R90
WINDOW 0 0 56 VBottom 2
WINDOW 3 32 56 VTop 2
SYMATTR InstName R7
SYMATTR Value 1k
SYMBOL res 2272 848 R90
WINDOW 0 0 56 VBottom 2
WINDOW 3 32 56 VTop 2
SYMATTR InstName R8
SYMATTR Value 1k
SYMBOL voltage 1744 864 R0
SYMATTR InstName V1
SYMATTR Value 6.35
SYMBOL OpAmps\\UniversalOpAmp4 2016 864 R0
SYMATTR InstName U4
SYMBOL voltage 1616 560 R0
SYMATTR InstName V2
SYMATTR Value 10
SYMBOL voltage 1616 672 R0
SYMATTR InstName V3
SYMATTR Value 10
SYMBOL AutoGenerated\\TLV3201 816 560 R0
SYMATTR InstName U6
SYMBOL AutoGenerated\\MC33063A-Q1_TRANS 784 960 R0
SYMATTR InstName U7
TEXT -24 -168 Left 2 !.tran 0 1.5m 0 1u
TEXT 584 248 Left 2 !.inc TL431.lib
TEXT 1048 -64 Left 2 ;Vref = 1,2V
TEXT 1168 592 Left 2 ;Venable = 12V
